/*--------------------------------*- C++ -*----------------------------------*\
| =========                 |                                                 |
| \\      /  F ield         | OpenFOAM: The Open Source CFD Toolbox           |
|  \\    /   O peration     | Version:  2.4.0                                 |
|   \\  /    A nd           | Web:      www.OpenFOAM.org                      |
|    \\/     M anipulation  |                                                 |
\*---------------------------------------------------------------------------*/
FoamFile
{
    version     2.0;
    format      ascii;
    class       volVectorField;
    object      U;
}
// * * * * * * * * * * * * * * * * * * * * * * * * * * * * * * * * * * * * * //

dimensions      [0 1 -1 0 0 0 0];

internalField   uniform (-1 0 0);

boundaryField
{
    inlet
    {
        type            freestream;
	freestreamValue	uniform (-10 0 0);
    }

    outlet
    {
        type            zeroGradient;
    }

    innerWall
    {
        type            freestream;
	freestreamValue	uniform (-10 0 0);
    }

    outerWall
    {
        type            freestream;
	freestreamValue	uniform (-10 0 0);
    }
    
    right
    {
        type            freestream;
	freestreamValue	uniform (-10 0 0);
    }

    left
    {
        type            freestream;
	freestreamValue	uniform (-10 0 0);
    }

    blade
    {
        type            fixedValue;
        value           uniform (0 0 0);
    }
}

// ************************************************************************* //
